LTspice 24.0.11 for Windows
Circuit: * C:\Users\varun\Documents\IIITH\Sem4\EW2\FinalFilter.asc
Start Time: Fri Jan 10 11:28:50 2025
solver = Normal
Maximum thread count: 16
tnom = 27
temp = 27
method = modified trap
Direct Newton iteration for .op point succeeded.
Total elapsed time: 0.267 seconds.

