LTspice 24.0.11 for Windows
Circuit: * C:\Users\varun\Documents\IIITH\Sem4\EW2\preampFinal.asc
Start Time: Fri Jan 10 11:02:17 2025
solver = Normal
Maximum thread count: 16
tnom = 27
temp = 27
method = modified trap
WARNING: Node VO is floating.

WARNING: Less than two connections to node vo.  This node is used by c1.
Direct Newton iteration for .op point succeeded.
N-Period=10.00
Fourier components of V(vo)
DC component:-3.09682e-11

Harmonic	Frequency	 Fourier 	Normalized	 Phase  	Normalized
 Number 	  [Hz]   	Component	 Component	[degree]	Phase [deg]
    1   	 1.000e+3	 2.261e-12	 1.000e+0	   89.39°	    0.00°
    2   	 2.000e+3	 1.120e-12	 4.954e-1	   89.10°	   -0.29°
    3   	 3.000e+3	 7.399e-13	 3.273e-1	   89.23°	   -0.17°
    4   	 4.000e+3	 5.528e-13	 2.445e-1	   89.60°	    0.20°
Partial Harmonic Distortion: 64.210179%
Total Harmonic Distortion:   1282.273682%


Total elapsed time: 0.158 seconds.

