LTspice 24.0.11 for Windows
Circuit: * C:\Users\varun\Documents\IIITH\Sem4\EW2\Preamp.asc
Start Time: Thu Jan  9 18:27:31 2025
solver = Normal
Maximum thread count: 16
tnom = 27
temp = 27
method = modified trap
WARNING: Node VO is floating.

WARNING: Less than two connections to node vo.  This node is used by c1.
Direct Newton iteration for .op point succeeded.
N-Period=10.00
Fourier components of V(vo)
DC component:-8.70112e-05

Harmonic	Frequency	 Fourier 	Normalized	 Phase  	Normalized
 Number 	  [Hz]   	Component	 Component	[degree]	Phase [deg]
    1   	 1.000e+3	 1.205e-1	 1.000e+0	   89.99°	    0.00°
    2   	 2.000e+3	 6.735e-5	 5.589e-4	   -0.49°	  -90.48°
    3   	 3.000e+3	 1.351e-3	 1.121e-2	   90.01°	    0.02°
    4   	 4.000e+3	 4.491e-7	 3.728e-6	   11.19°	  -78.80°
Partial Harmonic Distortion: 1.122311%
Total Harmonic Distortion:   1.123993%


Total elapsed time: 0.268 seconds.

